<?xml version="1.0" encoding="UTF-8"?>

<!-- generated on 2024-09-19 16:29:03 by Eclipse SUMO netedit Version 1.20.0
<configuration xmlns:xsi="http://www.w3.org/2001/XMLSchema-instance" xsi:noNamespaceSchemaLocation="http://sumo.dlr.de/xsd/neteditConfiguration.xsd">

    <input>
        <sumocfg-file value="D:\2. Proyek Akhir\RL-TraficLight-TwoLane-main\sumo\training\setup.sumocfg"/>
        <additional-files value=""/>
        <route-files value="D:\2. Proyek Akhir\RL-TraficLight-TwoLane-main\sumo\training\vehicle.rou.xml"/>
        <sumo-net-file value="D:\2. Proyek Akhir\RL-TraficLight-TwoLane-main\sumo\training\maps.net.xml"/>
    </input>

    <output>
        <output-file value="D:\2. Proyek Akhir\RL-TraficLight-TwoLane-main\sumo\training\maps.net.xml"/>
    </output>

    <processing>
        <geometry.min-radius.fix.railways value="false"/>
        <geometry.max-grade.fix value="false"/>
        <offset.disable-normalization value="true"/>
        <lefthand value="1"/>
    </processing>

    <junctions>
        <no-turnarounds value="true"/>
        <junctions.corner-detail value="5"/>
        <junctions.limit-turn-speed value="5.50"/>
        <rectangular-lane-cut value="0"/>
    </junctions>

    <pedestrian>
        <walkingareas value="0"/>
    </pedestrian>

</configuration>
-->

<net version="1.20" junctionCornerDetail="5" lefthand="true" limitTurnSpeed="5.50" xmlns:xsi="http://www.w3.org/2001/XMLSchema-instance" xsi:noNamespaceSchemaLocation="http://sumo.dlr.de/xsd/net_file.xsd">

    <location netOffset="0.00,0.00" convBoundary="-200.00,185.62,200.00,213.70" origBoundary="-10000000000.00,-10000000000.00,10000000000.00,10000000000.00" projParameter="!"/>

    <edge id=":simpang_0" function="internal">
        <lane id=":simpang_0_0" index="0" speed="13.89" length="43.00" shape="21.50,198.40 -21.50,198.40"/>
    </edge>
    <edge id=":simpang_1" function="internal">
        <lane id=":simpang_1_0" index="0" speed="13.89" length="43.00" shape="-21.50,201.60 21.50,201.60"/>
    </edge>

    <edge id="-E2" from="simpang" to="atas" priority="-1" shape="0.00,200.00 0.00,213.60">
        <lane id="-E2_0" index="0" disallow="all" speed="13.89" length="9.00" width="20.00" shape="-10.00,204.70 -10.00,213.70"/>
    </edge>
    <edge id="-E3" from="simpang" to="bawah" priority="-1">
        <lane id="-E3_0" index="0" disallow="all" speed="13.89" length="9.65" width="20.00" shape="10.01,195.29 10.02,185.63"/>
    </edge>
    <edge id="-LTR" from="simpang" to="kiri" priority="-1">
        <lane id="-LTR_0" index="0" speed="13.89" length="178.50" shape="-21.50,198.40 -200.00,198.40"/>
    </edge>
    <edge id="-RTL" from="simpang" to="kanan" priority="-1">
        <lane id="-RTL_0" index="0" speed="13.89" length="178.50" shape="21.50,201.60 200.00,201.60"/>
    </edge>
    <edge id="E2" from="atas" to="simpang" priority="-1" shape="0.00,213.60 0.00,200.00">
        <lane id="E2_0" index="0" disallow="all" speed="13.89" length="9.00" width="20.00" shape="10.00,213.70 10.00,204.70"/>
    </edge>
    <edge id="E3" from="bawah" to="simpang" priority="-1" length="10.00">
        <lane id="E3_0" index="0" disallow="all" speed="13.89" length="10.00" width="20.00" shape="-9.98,185.61 -9.99,195.26"/>
    </edge>
    <edge id="LTR" from="kiri" to="simpang" priority="-1" length="150.00">
        <lane id="LTR_0" index="0" speed="13.89" length="150.00" shape="-200.00,201.60 -21.50,201.60"/>
    </edge>
    <edge id="RTL" from="kanan" to="simpang" priority="-1" length="150.00">
        <lane id="RTL_0" index="0" speed="13.89" length="150.00" shape="200.00,198.40 21.50,198.40"/>
    </edge>

    <tlLogic id="simpang" type="static" programID="0" offset="0">
        <phase duration="5"  state="rr"/>
        <phase duration="3"  state="yr"/>
        <phase duration="82" state="Gr"/>
        <phase duration="3"  state="yr"/>
        <phase duration="5"  state="rr"/>
        <phase duration="3"  state="ry"/>
        <phase duration="82" state="rG"/>
        <phase duration="3"  state="ry"/>
    </tlLogic>

    <junction id="atas" type="dead_end" x="-0.10" y="213.70" incLanes="-E2_0" intLanes="" shape="0.00,213.70 -20.00,213.70 0.00,213.70"/>
    <junction id="bawah" type="dead_end" x="0.02" y="185.62" incLanes="-E3_0" intLanes="" shape="0.02,185.62 20.02,185.65 0.02,185.62"/>
    <junction id="kanan" type="dead_end" x="200.00" y="200.00" incLanes="-RTL_0" intLanes="" shape="200.00,200.00 200.00,203.20 200.00,200.00"/>
    <junction id="kiri" type="dead_end" x="-200.00" y="200.00" incLanes="-LTR_0" intLanes="" shape="-200.00,200.00 -200.00,196.80 -200.00,200.00"/>
    <junction id="simpang" type="traffic_light" x="0.00" y="200.00" incLanes="E3_0 RTL_0 E2_0 LTR_0" intLanes=":simpang_0_0 :simpang_1_0" shape="-19.99,195.24 20.01,195.30 20.17,196.13 20.38,196.43 20.67,196.63 21.05,196.76 21.50,196.80 21.50,203.20 20.67,203.37 20.38,203.57 20.17,203.87 20.04,204.24 20.00,204.70 -20.00,204.70 -20.17,203.87 -20.38,203.57 -20.67,203.37 -21.04,203.24 -21.50,203.20 -21.50,196.80 -20.66,196.63 -20.37,196.41 -20.16,196.11 -20.04,195.72">
        <request index="0" response="00" foes="00" cont="0"/>
        <request index="1" response="00" foes="00" cont="0"/>
    </junction>

    <connection from="LTR" to="-RTL" fromLane="0" toLane="0" via=":simpang_1_0" tl="simpang" linkIndex="1" dir="s" state="O"/>
    <connection from="RTL" to="-LTR" fromLane="0" toLane="0" via=":simpang_0_0" tl="simpang" linkIndex="0" dir="s" state="O"/>

    <connection from=":simpang_0" to="-LTR" fromLane="0" toLane="0" dir="s" state="M"/>
    <connection from=":simpang_1" to="-RTL" fromLane="0" toLane="0" dir="s" state="M"/>

</net>
